4
Coordinates from ORCA-job orca5 E -77.312968796659
  C       0.000000      0.000000      0.000000
  C       1.220000      0.000000      0.000000
  H      -1.080000      0.000000      0.000000
  H       2.300000     -0.000000      0.000000
4
Coordinates from ORCA-job orca5 E -77.314393200908
  C       0.010261     -0.000000     -0.000000
  C       1.209739      0.000000      0.000000
  H      -1.051914     -0.000000     -0.000000
  H       2.271914     -0.000000     -0.000000
4
Coordinates from ORCA-job orca5 E -77.314405629260
  C       0.011670      0.000000      0.000000
  C       1.208330      0.000000      0.000000
  H      -1.050828     -0.000000     -0.000000
  H       2.270828     -0.000000     -0.000000
4
Coordinates from ORCA-job orca5 E -77.314405790453
  C       0.011579      0.000000     -0.000000
  C       1.208421      0.000000      0.000000
  H      -1.050901     -0.000000      0.000000
  H       2.270901     -0.000000     -0.000000
