# avogadro generated ORCA input file 
# Advanced Mode
# 
! B3LYP SP def2-SVP def2/J NormalPrint Grid4  RijCosX GridX4  NormalSCF 
%scf
	MaxIter 125
	CNVDIIS 1
	CNVSOSCF 1 
end
%pal
	nprocs 8
end
%output
	print[p_mos] true
	print[p_basis] 5
end

* xyz 0 1
   C        0.59894       -2.67867       -1.06889
   C       -0.03193       -3.23712       -0.02969
   C       -0.71944       -2.43997        1.00484
   H       -0.04599       -4.32029        0.06386
   C       -2.59709        0.82596       -1.09931
   C       -1.63017        2.02207        0.83453
   C       -2.67276        1.80321       -0.18780
   H       -3.54211        2.45633       -0.18057
   C        2.53811        0.65051        0.74356
   C        1.82343        1.91536       -1.25831
   C        2.72328        1.68672       -0.29306
   H        3.64087        2.26988       -0.27449
  Ga       -0.00698       -0.01073       -0.17329
   O       -1.54617       -0.02163       -1.14777
   O       -0.60795        1.34720        0.89391
   O        0.63719       -1.33968       -1.23986
   O       -0.73129       -1.21384        0.99730
   O        1.52422       -0.03482        0.82274
   O        0.67336        1.21059       -1.34098
   C        3.63811        0.42384        1.73493
   H        4.56581        0.12671        1.20242
   H        3.82602        1.35781        2.30486
   H        3.36440       -0.38128        2.45022
   C        2.09398        2.96712       -2.29239
   H        2.20756        3.95810       -1.80416
   H        3.02486        2.72217       -2.84670
   H        1.25349        3.02106       -3.01609
   C       -1.83711        3.10550        1.84820
   H       -1.93206        4.08494        1.33425
   H       -2.76319        2.90427        2.42653
   H       -0.97990        3.15462        2.55349
   C       -3.70652        0.64706       -2.09224
   H       -4.65994        0.44095       -1.56099
   H       -3.81888        1.56630       -2.70511
   H       -3.48499       -0.20625       -2.76750
   C        1.27569       -3.54874       -2.08546
   H        2.06819       -4.15453       -1.59718
   H        0.53394       -4.22637       -2.55867
   H        1.74263       -2.92456       -2.87647
   C       -1.41975       -3.15910        2.11667
   H       -2.21397       -3.81149        1.69702
   H       -0.69132       -3.78231        2.67642
   H       -1.88680       -2.43712        2.82050
*

