43
Coordinates from ORCA-job Ga_acac3_belyp_rij_geo_opt_d3 E -2959.044324644451
  C      -2.752876     -1.037333     -0.011301
  C      -2.327540     -2.379381     -0.025433
  C      -0.976579     -2.776484     -0.033145
  H      -3.090103     -3.158105     -0.031548
  C       1.004079      0.001703      2.763627
  C       2.761820     -0.003160      1.005596
  C       2.350839     -0.001756      2.352198
  H       3.121964     -0.003732      3.122262
  C       0.019060      1.040943     -2.751505
  C      -0.052059      2.774230     -0.969734
  C      -0.021140      2.381189     -2.321528
  H      -0.029323      3.162396     -3.081207
  Ga     -0.000304     -0.001217     -0.001750
  O       0.000000     -0.000000      1.981579
  O       1.979424      0.000000      0.001585
  O      -1.981198     -0.025078      0.004520
  O       0.019516     -1.984078     -0.034737
  O       0.028369      0.025788     -1.983985
  O      -0.043314      1.979535      0.024640
  C       0.051218      0.726708     -4.229274
  H      -0.835046      0.124797     -4.489720
  H       0.077952      1.626267     -4.858668
  H       0.932680      0.100815     -4.443515
  C      -0.097484      4.242034     -0.615067
  H      -0.090192      4.897012     -1.496659
  H      -1.004439      4.438359     -0.020022
  H       0.763193      4.484535      0.029421
  C       4.234583     -0.004595      0.668651
  H       4.878142     -0.011256      1.558643
  H       4.459278     -0.886043      0.046159
  H       4.465208      0.882483      0.056155
  C       0.669351      0.005603      4.237122
  H       1.560075      0.027865      4.879180
  H       0.034323      0.878861      4.458555
  H       0.069953     -0.888974      4.473465
  C      -4.229450     -0.717458     -0.020699
  H      -4.863332     -1.614267     -0.000887
  H      -4.465732     -0.080120      0.846906
  H      -4.463295     -0.126165     -0.921501
  C      -0.626520     -4.246352     -0.033140
  H      -1.525242     -4.827031     -0.031751
  H      -0.052033     -4.476174      0.839811
  H      -0.054377     -4.476736     -0.907487
43
Coordinates from ORCA-job Ga_acac3_belyp_rij_geo_opt_d3 E -2959.046548937024
  C      -2.749344     -1.031751     -0.011285
  C      -2.324817     -2.372810     -0.023590
  C      -0.975165     -2.770693     -0.030281
  H      -3.087917     -3.150789     -0.029227
  C       0.998577      0.001061      2.759905
  C       2.756325      0.000438      1.004878
  C       2.344513     -0.000201      2.349984
  H       3.114789     -0.001452      3.120819
  C       0.016635      1.037831     -2.748148
  C      -0.047452      2.771361     -0.969596
  C      -0.019232      2.377465     -2.319855
  H      -0.025996      3.157914     -3.080367
  Ga     -0.000957      0.000747     -0.001732
  O      -0.004677      0.000075      1.978964
  O       1.976600      0.002914      0.000309
  O      -1.979407     -0.019823      0.003493
  O       0.020643     -1.979324     -0.032895
  O       0.025500      0.023549     -1.981446
  O      -0.040916      1.979181      0.025146
  C       0.042221      0.722192     -4.223448
  H      -0.845487      0.120073     -4.477902
  H       0.066044      1.621092     -4.853935
  H       0.922446      0.095628     -4.439911
  C      -0.087244      4.237637     -0.616223
  H      -0.077944      4.891949     -1.498243
  H      -0.993006      4.436849     -0.020539
  H       0.774668      4.476093      0.027917
  C       4.227386      0.001204      0.669702
  H       4.870124     -0.004586      1.560218
  H       4.452892     -0.879766      0.047046
  H       4.456022      0.888753      0.057410
  C       0.662348     -0.000046      4.230829
  H       1.552279      0.019387      4.874057
  H       0.027249      0.872643      4.453398
  H       0.062204     -0.895359      4.461993
  C      -4.223651     -0.711297     -0.018700
  H      -4.857660     -1.607837      0.001579
  H      -4.457307     -0.073915      0.849274
  H      -4.457060     -0.119237     -0.918899
  C      -0.626838     -4.241815     -0.035377
  H      -1.534568     -4.859293     -0.035739
  H      -0.025420     -4.472795      0.855701
  H      -0.027952     -4.467616     -0.929477
43
Coordinates from ORCA-job Ga_acac3_belyp_rij_geo_opt_d3 E -2959.046745714485
  C      -2.747510     -1.028067     -0.010753
  C      -2.323086     -2.368958     -0.022043
  C      -0.973767     -2.766702     -0.029612
  H      -3.086257     -3.146750     -0.026446
  C       0.993446     -0.001712      2.757237
  C       2.752234      0.003280      1.003717
  C       2.339391      0.000137      2.348250
  H       3.108965     -0.000502      3.119743
  C       0.013590      1.034454     -2.746399
  C      -0.042704      2.769015     -0.969222
  C      -0.017233      2.374239     -2.318992
  H      -0.022355      3.154112     -3.080068
  Ga     -0.001765      0.001482     -0.002110
  O      -0.009502     -0.001755      1.976151
  O       1.973834      0.005083     -0.001684
  O      -1.978063     -0.015924      0.002126
  O       0.021979     -1.976079     -0.031904
  O       0.022252      0.020466     -1.979503
  O      -0.038744      1.977796      0.026045
  C       0.034125      0.717647     -4.221045
  H      -0.854354      0.114737     -4.470816
  H       0.055070      1.615794     -4.852692
  H       0.913706      0.090924     -4.439686
  C      -0.076975      4.235220     -0.616553
  H      -0.065560      4.889423     -1.498606
  H      -0.981643      4.437546     -0.020253
  H       0.786045      4.469898      0.027487
  C       4.223157      0.007299      0.669818
  H       4.865549      0.002795      1.560560
  H       4.450419     -0.873009      0.046872
  H       4.449556      0.895471      0.057594
  C       0.655919     -0.007298      4.227408
  H       1.544973      0.009397      4.871923
  H       0.020812      0.864978      4.451548
  H       0.054879     -0.903107      4.454189
  C      -4.221357     -0.707381     -0.017820
  H      -4.855728     -1.603655      0.001513
  H      -4.453953     -0.070632      0.850864
  H      -4.453991     -0.113817     -0.917226
  C      -0.624948     -4.236515     -0.035031
  H      -1.522430     -4.872593     -0.035102
  H      -0.012610     -4.463456      0.853765
  H      -0.015917     -4.457655     -0.927436
43
Coordinates from ORCA-job Ga_acac3_belyp_rij_geo_opt_d3 E -2959.046856419071
  C      -2.745148     -1.023098     -0.010307
  C      -2.320511     -2.363932     -0.019702
  C      -0.971280     -2.761316     -0.027933
  H      -3.083564     -3.141832     -0.022777
  C       0.985229     -0.006296      2.753561
  C       2.746248      0.008571      1.002057
  C       2.331475      0.000983      2.345930
  H       3.099943      0.000802      3.118510
  C       0.008987      1.028693     -2.744229
  C      -0.034930      2.765370     -0.968753
  C      -0.013839      2.368962     -2.318047
  H      -0.016634      3.147925     -3.080047
  Ga     -0.003022      0.002228     -0.002760
  O      -0.017296     -0.005256      1.971691
  O       1.969604      0.008936     -0.004809
  O      -1.976074     -0.010444     -0.000313
  O       0.024709     -1.971497     -0.030215
  O       0.017057      0.015108     -1.976542
  O      -0.035234      1.975264      0.027471
  C       0.021399      0.710107     -4.218491
  H      -0.867788      0.105304     -4.461025
  H       0.037130      1.607065     -4.851933
  H       0.900375      0.083880     -4.441083
  C      -0.059608      4.232034     -0.617347
  H      -0.044464      4.885937     -1.499527
  H      -0.962422      4.440114     -0.020203
  H       0.805246      4.460649      0.026443
  C       4.217582      0.018630      0.670313
  H       4.859302      0.016661      1.561505
  H       4.448571     -0.860562      0.047138
  H       4.440281      0.907775      0.058129
  C       0.645812     -0.019287      4.223190
  H       1.533531     -0.007030      4.869615
  H       0.010829      0.852304      4.450403
  H       0.043343     -0.915803      4.443226
  C      -4.218973     -0.702350     -0.015723
  H      -4.853814     -1.598285      0.001816
  H      -4.449928     -0.067390      0.854759
  H      -4.451265     -0.105840     -0.913235
  C      -0.620891     -4.228664     -0.034961
  H      -1.502901     -4.885111     -0.034809
  H       0.003677     -4.450736      0.847576
  H      -0.001299     -4.442945     -0.922757
43
Coordinates from ORCA-job Ga_acac3_belyp_rij_geo_opt_d3 E -2959.046869581643
  C      -2.744503     -1.021946     -0.010131
  C      -2.319523     -2.362737     -0.019054
  C      -0.970211     -2.760060     -0.027706
  H      -3.082353     -3.140884     -0.021622
  C       0.982388     -0.008253      2.752312
  C       2.744363      0.011059      1.001389
  C       2.328786      0.001457      2.345077
  H       3.096891      0.001389      3.118033
  C       0.007329      1.026745     -2.743794
  C      -0.031881      2.764149     -0.968598
  C      -0.012477      2.367186     -2.317829
  H      -0.014432      3.145919     -3.080077
  Ga     -0.003481      0.002251     -0.003178
  O      -0.019981     -0.007018      1.970032
  O       1.968266      0.010756     -0.006008
  O      -1.975563     -0.009056     -0.001394
  O       0.026052     -1.970277     -0.029904
  O       0.015068      0.013259     -1.975795
  O      -0.033971      1.974244      0.027907
  C       0.017281      0.707796     -4.218124
  H      -0.871553      0.101651     -4.458526
  H       0.030637      1.604499     -4.851965
  H       0.896632      0.082617     -4.442292
  C      -0.052762      4.231085     -0.617659
  H      -0.036167      4.884770     -1.499961
  H      -0.954851      4.441626     -0.020268
  H       0.812835      4.457546      0.025897
  C       4.216005      0.024153      0.670551
  H       4.857300      0.023508      1.562040
  H       4.449129     -0.854552      0.047466
  H       4.437118      0.913715      0.058403
  C       0.642522     -0.023877      4.221931
  H       1.529929     -0.013333      4.868796
  H       0.007898      0.847619      4.450584
  H       0.039407     -0.920468      4.439843
  C      -4.218527     -0.701514     -0.014818
  H      -4.853309     -1.597510      0.001120
  H      -4.449338     -0.068317      0.857012
  H      -4.450966     -0.103094     -0.911011
  C      -0.619226     -4.226852     -0.034434
  H      -1.498813     -4.884841     -0.033393
  H       0.006960     -4.448056      0.846038
  H       0.000538     -4.440727     -0.921083
43
Coordinates from ORCA-job Ga_acac3_belyp_rij_geo_opt_d3 E -2959.046877237596
  C      -2.743969     -1.021329     -0.010070
  C      -2.318406     -2.361998     -0.018390
  C      -0.969040     -2.759267     -0.027217
  H      -3.080878     -3.140524     -0.020445
  C       0.979681     -0.010054      2.751118
  C       2.742622      0.014041      1.000789
  C       2.326210      0.002244      2.344274
  H       3.093970      0.002353      3.117586
  C       0.005940      1.025032     -2.743618
  C      -0.028780      2.763043     -0.968603
  C      -0.010913      2.365595     -2.317777
  H      -0.011882      3.144160     -3.080208
  Ga     -0.004000      0.002163     -0.003724
  O      -0.022500     -0.008898      1.968436
  O       1.967107      0.012919     -0.007116
  O      -1.975338     -0.008150     -0.002612
  O       0.027475     -1.969386     -0.029760
  O       0.013026      0.011642     -1.975365
  O      -0.032839      1.973306      0.028119
  C       0.013720      0.705887     -4.218004
  H      -0.874194      0.097696     -4.456543
  H       0.024098      1.602470     -4.852059
  H       0.894029      0.082611     -4.443849
  C      -0.045578      4.230204     -0.618138
  H      -0.027404      4.883570     -1.500639
  H      -0.946912      4.443491     -0.020573
  H       0.820823      4.454487      0.025102
  C       4.214552      0.030466      0.670974
  H       4.855254      0.031416      1.562885
  H       4.450201     -0.847810      0.048214
  H       4.434037      0.920396      0.058788
  C       0.639488     -0.028265      4.220709
  H       1.526721     -0.019676      4.867827
  H       0.005612      0.843368      4.451001
  H       0.035466     -0.924703      4.436688
  C      -4.218225     -0.701565     -0.013404
  H      -4.852674     -1.597831      0.000219
  H      -4.449007     -0.071175      0.860509
  H      -4.451259     -0.100435     -0.907595
  C      -0.617753     -4.225913     -0.034044
  H      -1.497812     -4.882176     -0.031828
  H       0.008740     -4.447414      0.845119
  H       0.000039     -4.440362     -0.920965
43
Coordinates from ORCA-job Ga_acac3_belyp_rij_geo_opt_d3 E -2959.046880615232
  C      -2.743809     -1.021329     -0.009924
  C      -2.317730     -2.361858     -0.017852
  C      -0.968359     -2.759050     -0.027008
  H      -3.079921     -3.140671     -0.019287
  C       0.978050     -0.011200      2.750274
  C       2.741528      0.016128      1.000321
  C       2.324628      0.002871      2.343670
  H       3.092193      0.003263      3.117180
  C       0.005178      1.024283     -2.743722
  C      -0.026717      2.762470     -0.968705
  C      -0.009678      2.364862     -2.317856
  H      -0.009718      3.143405     -3.080316
  Ga     -0.004498      0.002024     -0.004254
  O      -0.024016     -0.010238      1.967399
  O       1.966404      0.014450     -0.007877
  O      -1.975538     -0.007905     -0.003500
  O       0.028218     -1.969062     -0.029986
  O       0.011526      0.010902     -1.975427
  O      -0.032312      1.972789      0.028067
  C       0.012035      0.705169     -4.218109
  H      -0.874755      0.095029     -4.455738
  H       0.020021      1.601781     -4.852156
  H       0.893501      0.083847     -4.444957
  C      -0.040806      4.229692     -0.618426
  H      -0.021558      4.882874     -1.501041
  H      -0.941643      4.444807     -0.020767
  H       0.826134      4.452510      0.024598
  C       4.213584      0.034831      0.671180
  H       4.853846      0.037018      1.563404
  H       4.451022     -0.843250      0.048813
  H       4.431956      0.924927      0.058850
  C       0.637711     -0.030925      4.219799
  H       1.524913     -0.023888      4.866976
  H       0.004722      0.841080      4.451199
  H       0.032764     -0.926992      4.434661
  C      -4.218197     -0.702221     -0.012257
  H      -4.852256     -1.598796     -0.001032
  H      -4.449182     -0.074620      0.863636
  H      -4.451676     -0.098486     -0.904549
  C      -0.617149     -4.225869     -0.033475
  H      -1.498828     -4.880001     -0.029797
  H       0.009492     -4.447592      0.845371
  H      -0.001635     -4.441432     -0.921575
43
Coordinates from ORCA-job Ga_acac3_belyp_rij_geo_opt_d3 E -2959.046882400620
  C      -2.743972     -1.021677     -0.009743
  C      -2.317453     -2.362075     -0.017220
  C      -0.968068     -2.759126     -0.026695
  H      -3.079440     -3.141085     -0.017985
  C       0.976967     -0.011878      2.749636
  C       2.740732      0.017620      0.999930
  C       2.323554      0.003406      2.343191
  H       3.091009      0.004096      3.116809
  C       0.004896      1.024095     -2.744009
  C      -0.025306      2.762233     -0.968908
  C      -0.008522      2.364646     -2.318059
  H      -0.007590      3.143233     -3.080471
  Ga     -0.005077      0.001880     -0.004780
  O      -0.025039     -0.011192      1.966684
  O       1.965876      0.015541     -0.008442
  O      -1.976072     -0.008011     -0.004200
  O       0.028427     -1.969031     -0.030414
  O       0.010294      0.010668     -1.975777
  O      -0.032257      1.972546      0.027831
  C       0.011543      0.705086     -4.218374
  H      -0.873941      0.092923     -4.455565
  H       0.017340      1.601771     -4.852345
  H       0.894338      0.085829     -4.445804
  C      -0.037444      4.229440     -0.618632
  H      -0.017346      4.882555     -1.501282
  H      -0.937952      4.445843     -0.020948
  H       0.829852      4.451137      0.024304
  C       4.212833      0.037798      0.671218
  H       4.852796      0.041010      1.563656
  H       4.451484     -0.840294      0.049323
  H       4.430449      0.927871      0.058595
  C       0.636543     -0.032485      4.219088
  H       1.523755     -0.026907      4.866269
  H       0.004612      0.840100      4.451255
  H       0.030526     -0.927985      4.433231
  C      -4.218447     -0.703158     -0.011051
  H      -4.852131     -1.600025     -0.002307
  H      -4.449618     -0.078409      0.866861
  H      -4.452316     -0.096745     -0.901389
  C      -0.617023     -4.226174     -0.032988
  H      -1.500019     -4.878953     -0.027772
  H       0.010226     -4.447919      0.845634
  H      -0.003570     -4.442568     -0.922546
