# avogadro generated ORCA input file 
# computing thermodynamic functions at different T after you geo_opt with freq calculation has already finished 
# 
!PRINTTHERMOCHEM
%GEOM
	INHESSNAME "..\Ga_acac3_belyp_rij_geo_opt.hess"
END
%FREQ TEMP 298, 723, 773
END
%PAL
	NPROCS 8
END
* xyz 0 1
   C        0.61592       -2.64250       -1.11853
   C       -0.07572       -3.26341       -0.06103
   C       -0.73228       -2.56230        0.96864
   H       -0.10403       -4.35272       -0.03750
   C       -2.67317        0.83233       -1.07408
   C       -1.86012        2.07146        0.92188
   C       -2.83113        1.79635       -0.05980
   H       -3.76110        2.36384       -0.03246
   C        2.71912        0.75434        0.76551
   C        1.96262        1.92887       -1.29173
   C        2.91988        1.65860       -0.29504
   H        3.87466        2.18111       -0.34834
  Ga        0.00714        0.06220       -0.13656
   O       -1.64820        0.09385       -1.22855
   O       -0.73018        1.49304        1.01600
   O        0.72767       -1.38499       -1.28156
   O       -0.77868       -1.29497        1.07744
   O        1.66228        0.07101        0.95488
   O        0.80622        1.40106       -1.35920
   C        3.81312        0.53751        1.78518
   H        4.11493       -0.52282        1.77089
   H        4.69428        1.16908        1.60987
   H        3.41029        0.73813        2.79121
   C        2.28004        2.91639       -2.39007
   H        3.27954        3.36092       -2.29186
   H        2.19982        2.40622       -3.36397
   H        1.52103        3.71566       -2.38739
   C       -2.12622        3.12904        1.96748
   H       -3.11085        3.60300        1.85719
   H       -2.04827        2.67229        2.96760
   H       -1.33994        3.89951        1.90929
   C       -3.77741        0.61598       -2.08259
   H       -4.63507        1.28464       -1.92950
   H       -3.37153        0.76450       -3.09653
   H       -4.11580       -0.43184       -2.02809
   C        1.30201       -3.48800       -2.16595
   H        1.15628       -4.56561       -2.01108
   H        0.92451       -3.20462       -3.16192
   H        2.38119       -3.26197       -2.15983
   C       -1.45973       -3.32574        2.05078
   H       -1.35891       -4.41482        1.94975
   H       -1.07787       -3.00920        3.03494
   H       -2.52855       -3.05567        2.02389
*

